ieee.odm.test/testdata/psse/v30/PSSE30_SegTest.raw
0,   100.00          / PSS/E-30.0    THU, JAN 24 2008  14:13
BASICO 1, SEMINARIO DE GRADUACION INTERPSS
LABORATORIO DE SIMULACION SISTEMAS DE POTENCIA, ICE, I-2008
 36309,'E FRA; R    ', 345.0000,1,     0.000,     0.000, 222,1274,1.02297, -32.5503,   1
 36703,'E FRA; R    ', 138.0000,1,     0.000,     0.000, 222,1273,1.01707, -35.7768,   1
 36106,'E FRA;3C    ',  34.5000,1,     0.000,     0.000, 222,1278,0.97118, -36.0962,   1
615600,'COAL CR4    ', 230.0000,1,     0.000,   237.700, 615, 641,1.03207,   1.0053, 615
615353,'DICKNSN3    ', 345.0000,1,     0.000,   264.800, 615, 636,1.00836, -26.3734, 615 
0 / END OF BUS DATA, BEGIN LOAD DATA
0 / END OF LOAD DATA, BEGIN GENERATOR DATA
0 / END OF GENERATOR DATA, BEGIN BRANCH DATA
0 / END OF BRANCH DATA, BEGIN TRANSFORMER DATA
 36309, 36703, 36106,'1 ',2,3,1,   0.00000,   0.00000,2,'E FRA 83    ',1,   1,1.0000
    249550,   0.06340,   300.00,    138110,   0.06190,   108.00,    132475,   0.08895,   108.00,1.01533, -36.0962
338.250,   0.000,   0.000,   420.00,   480.00,   519.00, 0,      0, 1.10000, 0.90000, 1.10000, 0.90000,  33, 0, 0.00000, 0.00000
138.000,   0.000,   0.000,   420.00,   480.00,   519.00, 0,      0, 1.10000, 0.90000, 1.10000, 0.90000,  33, 0, 0.00000, 0.00000
33.0000,   0.000,   0.000,     0.00,     0.00,     0.00, 0,      0, 1.10000, 0.90000, 1.10000, 0.90000,  33, 0, 0.00000, 0.00000
0 / END OF TRANSFORMER DATA, BEGIN AREA DATA
0 / END OF AREA DATA, BEGIN TWO-TERMINAL DC DATA
  1,1,   13.7500,    552.00,    410.00,     -1.00,   13.7500,   0.10000,'I',      0.00,  20,   1.00000
615600, 2,19.00,15.00, 0.0000,21.6000, 230.0,0.74260,0.97500,1.20000,0.90000,0.01250,     0,     0,     0,'1 ', 0.0000
615353, 2,18.00,18.00, 0.0000,19.8000, 345.0,0.47140,0.95221,1.21250,0.91250,0.00001,     0,     0,     0,'1 ', 0.0000
  2,1,   13.7500,    552.00,    410.00,     -1.00,   13.7500,   0.10000,'I',      0.00,  20,   1.00000
615600, 2,19.00,15.00, 0.0000,21.6000, 230.0,0.74260,0.97500,1.20000,0.90000,0.01250,     0,     0,     0,'1 ', 0.0000
615353, 2,18.00,18.00, 0.0000,19.8000, 345.0,0.47140,0.95221,1.21250,0.91250,0.00001,     0,     0,     0,'1 ', 0.0000
0 / END OF TWO-TERMINAL DC DATA, BEGIN VSC DC LINE DATA
0 / END OF VSC DC LINE DATA, BEGIN SWITCHED SHUNT DATA
0 / END OF SWITCHED SHUNT DATA, BEGIN IMPEDANCE CORRECTION DATA
 1, -60.00, 1.00000, -36.00, 0.35800, -24.40, 0.19200, -12.40, 0.05400,  -8.30, 0.02400,   0.00, 0.01000,   8.30, 0.02400,  12.40, 0.05400,  24.40, 0.19200,  36.00, 0.35800,  60.00, 1.00000
 2, -70.00, 1.00000, -43.00, 0.78000, -32.00, 0.85000,   0.00, 0.50000,  32.00, 0.85000,  43.00, 0.78000,  70.00, 1.00000
 3,-180.00, 1.00000,-150.00, 0.50000,   0.00, 0.50000, 150.00, 0.50000, 180.00, 1.00000
 4,-152.00, 1.00000,-121.50, 0.62500, -85.40, 0.37200, -42.20, 0.21700,   0.00, 0.15700,  42.20, 0.21700,  85.40, 0.37200, 121.50, 0.62500, 152.00, 1.00000
0 / END OF IMPEDANCE CORRECTION DATA, BEGIN MULTI-TERMINAL DC DATA
0 / END OF MULTI-TERMINAL DC DATA, BEGIN MULTI-SECTION LINE DATA
180703,-180705,'&1',189721,189121
180703,-180705,'&2',189821,189221
180703,-180705,'&3',189921,189321
180704,-180706,'&1',189825,189225
180706, 180718,'&1',189218
0 / END OF MULTI-SECTION LINE DATA, BEGIN ZONE DATA
0 / END OF ZONE DATA, BEGIN INTER-AREA TRANSFER DATA
0 / END OF INTER-AREA TRANSFER DATA, BEGIN OWNER DATA
0 / END OF OWNER DATA, BEGIN FACTS DEVICE DATA
 1,148049,     0,1,     0.000,     0.000,1.02627,   204.000,     0.000,0.90000,1.10000,1.00000,     0.000, 0.05000,  100.0,   7,   0.00000,   0.00000,0
0 / END OF FACTS DEVICE DATA
